

 <GENCASE4>  Copyright (c) 2019 by Dr Jose M. Dominguez
 All rights reserved.

 DualSPHysics is an international collaboration between University of Vigo 
 (Spain) and University of Manchester (UK). 

 Redistribution and use in source and binary forms, with or without
 modification, are permitted provided that the following conditions
 are met:
 * Redistributions of source code must retain the above copyright
   notice, this list of conditions and the following disclaimer.
 * Redistributions in binary form must reproduce the above copyright
   notice, this list of conditions and the following disclaimer in the
   documentation and/or other materials provided with the distribution.
 * Neither the name of the DualSPHysics nor the names of its contributors
   may be used to endorse or promote products derived from this software
   without specific prior written permission.

 THIS SOFTWARE IS PROVIDED BY THE COPYRIGHT HOLDERS AND CONTRIBUTORS "AS IS"
 AND ANY EXPRESS OR IMPLIED WARRANTIES, INCLUDING, BUT NOT LIMITED TO, THE
 IMPLIED WARRANTIES OF MERCHANTABILITY AND FITNESS FOR A PARTICULAR PURPOSE
 ARE DISCLAIMED. IN NO EVENT SHALL THE COPYRIGHT OWNER BE LIABLE FOR ANY
 DIRECT, INDIRECT, INCIDENTAL, SPECIAL, EXEMPLARY, OR CONSEQUENTIAL DAMAGES
 (INCLUDING, BUT NOT LIMITED TO, PROCUREMENT OF SUBSTITUTE GOODS OR SERVICES;
 LOSS OF USE, DATA, OR PROFITS; OR BUSINESS INTERRUPTION) HOWEVER CAUSED AND
 ON ANY THEORY OF LIABILITY, WHETHER IN CONTRACT, STRICT LIABILITY, OR TORT
 (INCLUDING NEGLIGENCE OR OTHERWISE) ARISING IN ANY WAY OUT OF THE USE OF
 THIS SOFTWARE, EVEN IF ADVISED OF THE POSSIBILITY OF SUCH DAMAGE. 


GenCase4 v4.0.109 (21-06-2019) 
================================
OmpThreads: 12

[LoadXML]
List: MAIN

Total operations: 18
[LoadXML-End  time:0.001s]

[Draw]
Mk size: 1 bytes
Case limits: (-20,-10,-15) - (20,10,20)
Distance between points: 0.1
Case domain: (0,0,0)-(399,199,349)
Domain points: 400 x 200 x 350 = 28000000
Case parts: 1 x 350z
Memory: 0.03Gb 26.70Mb (28000000)

List of available variables: Dp=[0.1]  PosMin_x=[-20]  PosMin_y=[-10]  PosMin_z=[-15]  PosMax_x=[20]  PosMax_y=[10]  PosMax_z=[20]

> MAIN
FileShapes> tank_Dp.vtk  shapes:3  points:8   (time:0.000s)
FileShapes> arc_Dp.vtk  shapes:106123  points:768   (time:0.008s)
FileShapes> _Dp.vtk <---- EMPTY FILE NOT SAVED
<MAIN (Operations= 13+5+3 = 21)

Triangles: 236454 (130321 ignored)
[Draw-End  time:6.091s]

[PreparePoints]
Computing Vtk-Cells data...  (time:0.249s)
BitSizeTot: 23 (3 + 8+6+6)
Points loaded: 665823
Sorting points by Z...
Sorting points by Mk...

List of Points:
Points -> Fixed-Boundary particles:
  block[  0] (mk: 11):  40809  -->   40809
Points -> Floating-Boundary particles:
  block[  1] (mk:110):   2104  -->    2104
Points -> Fluid particles:
  block[  2] (mk:  1): 616688  -->  616688
  block[  3] (mk:  2):   3111  -->    3111
  block[  4] (mk:  3):   3111  -->    3111

Particle summary:
  Fixed....: 40809  id:(0-40808)   MKs:1 (11)
  Moving...: 0
  Floating.: 2104  id:(40809-42912)   MKs:1 (110)
  Fluid....: 622910  id:(42913-665822)   MKs:3 (1-3)

Total particles: 665823 (bound=42913 (fx=40809 mv=0 ft=2104) fluid=622910)
Total MK blocks: 5 (bound=2 (fx=1 mv=0 ft=1) fluid=3)

Maximum depth: 5 (automatic)
Speed of system: 7.00357 (automatic)
Speed of sound: max(coefsound*speedsystem,10*sqrt(g*depth))
Speed of sound: 140.071 max(140.071,70.0357)

Coefh:1.000000 (hdp:1.732051)

[PreparePoints-End  time:0.309s]

[SaveCase3D]
ARC_2_out/ARC_2_MkCells.vtk  (time:0.001s, shapes:3037, points:12148)
ARC_2.bi4<double>  (time:0.023s)
ARC_2_out/ARC_2_All.vtk  (time: 0.042s)
ARC_2_out/ARC_2_Bound.vtk  (time: 0.003s)
ARC_2_out/ARC_2_Fluid.vtk  (time: 0.037s)
ARC_2_out/ARC_2.xml  (time:0.001s)
 
Data file copied: Floating_Materials.xml (xml row:80)
Geometry file copied: ARC2.stl (xml row:55)

Save files time: 0.105s

Particle limits:
  X range: -11.1 to 11.1 [m]
  Y range: -3.1 to 3.1 [m]
  Z range: 1.9 to 7.9 [m]

[SaveCase3D-End  time:0.138s]

